Geom Title=Hickahala85
Program Version=4.00
Viewing Rectangle= 0 , 1 , 1 , 0 

River Reach=RIVER-1         ,Reach-1         
Reach XY= 2 
             0.5            0.95             0.5            0.05
Rch Text X Y=0.5,0.725
Reverse River Text= 0 

Type RM Length L Ch R = 1 ,1369.4  ,3510,3510,3510
Node Last Edited Time=Mar/11/2003 15:40:50
#Sta/Elev= 13 
    9300     450    9900     400   10000   396.3   10118   397.8   10136     382
   10142   382.3   10156   387.5   10160   397.2   10169   397.5   10210   397.2
   10260   397.6   10560     400   11260     450
#Mann= 3 , 0 , 0 
    9300     .08       0   10118     .06       0   10160     .08       0
#Block Obstruct= 2 , 0 
           10118   397.8   10169           397.5
Bank Sta=10118,10160
XS Rating Curve= 0 ,0
Sediment Elevation=0
Exp/Cntr=0.3,0.1

Type RM Length L Ch R = 1 ,1334.3  ,50,50,50
BEGIN DESCRIPTION:
This is a REPEATED section.

END DESCRIPTION:
Node Last Edited Time=Mar/11/2003 15:40:50
#Sta/Elev= 10 
       0     400     100     390     225     385     226     377     240   369.8
     255   369.8     274     379     275     385    1100     390    1350     400
#Mann= 3 , 0 , 0 
       0     .08       0     225     .06       0     275     .08       0
#XS Ineff= 2 , 0 
             225     385     275             385
Permanent Ineff=
       F       F
Bank Sta=225,275
XS Rating Curve= 0 ,0
Sediment Elevation=0
Exp/Cntr=0.5,0.3

Type RM Length L Ch R = 1 ,1333.8  ,20,20,20
BEGIN DESCRIPTION:
This is a REPEATED section.

END DESCRIPTION:
Node Last Edited Time=Mar/11/2003 15:40:50
#Sta/Elev= 10 
       0     400     100     390     225     385     226     377     240   369.8
     255   369.8     274     379     275     385    1100     390    1350     400
#Mann= 3 , 0 , 0 
       0     .08       0     225     .06       0     275     .08       0
#XS Ineff= 2 , 0 
             225     385     275             385
Permanent Ineff=
       F       F
Bank Sta=225,275
XS Rating Curve= 0 ,0
Sediment Elevation=0
Exp/Cntr=0.5,0.3

Type RM Length L Ch R = 3 ,1333.7  ,,,
BEGIN DESCRIPTION:
Bridge #13

END DESCRIPTION:
Node Last Edited Time=May/20/2003 11:50:13
Bridge Culvert--1,0,-1,-1, 0 
Deck Dist Width WeirC Skew NumUp NumDn MinLoCord MaxHiCord MaxSubmerge Is_Ogee
3,16,2.6,0, 6, 6, 385, , 0.95, 0, 0,0,,
       0     225     225     275     275    1350
     385     385     385     385     385     385
   369.8   369.8   383.5   383.5   369.8   369.8
       0     225     225     275     275    1350
     385     385     385     385     385     385
   369.8   369.8   383.5   383.5   369.8   369.8
Pier Skew, UpSta & Num, DnSta & Num=  ,250, 2 ,250, 2 , 0 , 0 , 0 ,,
     2.5     2.5
   369.8   383.5
     2.5     2.5
   369.8   383.5
BR Coef= 0 , 0 ,-1 ,1.05, 0 ,,,0.8006408,0,,2,383.5
WSPro=,,,, 1 ,,,, 0 ,,,, 0 ,,,,-1 ,-1 ,-1 , 0 , 0 , 0 , 0 , 0 
BC Design=,, 0 ,, 0 ,,,,,,
BC Use User HTab Curves=0
BC User HTab FreeFlow(D)= 0 

Type RM Length L Ch R = 1 ,1333.6  ,200,200,200
BEGIN DESCRIPTION:
This is a REPEATED section.

END DESCRIPTION:
Node Last Edited Time=Mar/11/2003 15:40:50
#Sta/Elev= 10 
       0     400     100     390     225     385     226     377     240   369.8
     255   369.8     274     379     275     385    1100     390    1350     400
#Mann= 3 , 0 , 0 
       0     .08       0     225     .06       0     275     .08       0
#XS Ineff= 2 , 0 
             225     385     275             385
Permanent Ineff=
       F       F
Bank Sta=225,275
XS Rating Curve= 0 ,0
Sediment Elevation=0
Exp/Cntr=0.5,0.3

Type RM Length L Ch R = 1 ,1331.6  ,1425,1425,1425
Node Last Edited Time=Mar/11/2003 15:40:50
#Sta/Elev= 10 
       0     400     100     390     225     385     226     377     240   369.8
     255   369.8     274     379     275     385    1100     390    1350     400
#Mann= 3 , 0 , 0 
       0     .08       0     225     .06       0     275     .08       0
#XS Ineff= 2 , 0 
             225     385     275             385
Permanent Ineff=
       F       F
Bank Sta=225,275
XS Rating Curve= 0 ,0
Sediment Elevation=0
Exp/Cntr=0.5,0.3

Type RM Length L Ch R = 1 ,1317.4  ,3385,3385,3385
Node Last Edited Time=Mar/11/2003 15:40:50
#Sta/Elev= 26 
    7400     450    7800     440    8300     430    8500     420    8800     410
    9100     400    9600     400    9750     390    9800     380   10000     376
   10120   376.5   10133   377.4   10140   378.3   10147   377.5   10153   369.5
   10161     364   10175   363.9   10186   363.1   10197     372   10200   377.9
   10229     377   10300   377.1   10500     380   11600     390   11800     400
   12100     450
#Mann= 3 , 0 , 0 
    7400     .08       0   10147     .06       0   10200     .08       0
#Block Obstruct= 2 , 0 
           10140   378.3   10200           377.9
Bank Sta=10147,10200
XS Rating Curve= 0 ,0
Sediment Elevation=0
Exp/Cntr=0.3,0.1

Type RM Length L Ch R = 1 ,1283.5  ,1945,1945,1945
Node Last Edited Time=Mar/11/2003 15:40:50
#Sta/Elev= 21 
    9000     400    9250     370   10000   364.1   10050   364.2   10100   363.9
   10126     363   10134   363.5   10136     358   10144   354.6   10147   352.6
   10151   352.8   10160   352.8   10168   356.5   10185   361.6   10194   361.5
   10200   364.8   10206     365   10218   363.3   10300   363.5   10600     370
   11300     400
#Mann= 3 , 0 , 0 
    9000     .08       0   10134     .06       0   10200     .08       0
#Block Obstruct= 2 , 0 
           10134   363.5   10206             365
Bank Sta=10134,10200
XS Rating Curve= 0 ,0
Sediment Elevation=0
Exp/Cntr=0.3,0.1

Type RM Length L Ch R = 1 ,1264.1  ,50,50,50
BEGIN DESCRIPTION:
This is a REPEATED section.

END DESCRIPTION:
Node Last Edited Time=Mar/11/2003 15:40:50
#Sta/Elev= 12 
       0     370     300     360     500     360     620     361     621     352
     624     349     636     349     640   345.6     655   345.6     670     348
     680     361    1200     370
#Mann= 3 , 0 , 0 
       0     .08       0     620     .06       0     680     .08       0
#XS Ineff= 2 , 0 
             620     361     680             361
Permanent Ineff=
       F       F
Bank Sta=620,680
XS Rating Curve= 0 ,0
Sediment Elevation=0
Exp/Cntr=0.5,0.3

Type RM Length L Ch R = 1 ,1263.6  ,20,20,20
BEGIN DESCRIPTION:
This is a REPEATED section.

END DESCRIPTION:
Node Last Edited Time=Mar/11/2003 15:40:50
#Sta/Elev= 12 
       0     370     300     360     500     360     620     361     621     352
     624     349     636     349     640   345.6     655   345.6     670     348
     680     361    1200     370
#Mann= 3 , 0 , 0 
       0     .08       0     620     .06       0     680     .08       0
#XS Ineff= 2 , 0 
             620     361     680             361
Permanent Ineff=
       F       F
Bank Sta=620,680
XS Rating Curve= 0 ,0
Sediment Elevation=0
Exp/Cntr=0.5,0.3

Type RM Length L Ch R = 3 ,1263.5  ,,,
BEGIN DESCRIPTION:
Bridge #12

END DESCRIPTION:
Node Last Edited Time=May/20/2003 11:50:13
Bridge Culvert--1,0,-1,-1, 0 
Deck Dist Width WeirC Skew NumUp NumDn MinLoCord MaxHiCord MaxSubmerge Is_Ogee
3,16,2.6,0, 6, 6, 361, , 0.95, 0, 0,0,,
       0     620     620     680     680    1200
     361     361     361     361     361     361
   345.6   345.6   359.5   359.5   345.6   345.6
       0     620     620     680     680    1200
     361     361     361     361     361     361
   345.6   345.6   359.5   359.5   345.6   345.6
Pier Skew, UpSta & Num, DnSta & Num=  ,650, 2 ,650, 2 , 0 , 0 , 0 ,,
     2.5     2.5
   345.6   359.5
     2.5     2.5
   345.6   359.5
BR Coef= 0 , 0 ,-1 ,1.05, 0 ,,,0.8006408,0,,2,359.5
WSPro=,,,, 1 ,,,, 0 ,,,, 0 ,,,,-1 ,-1 ,-1 , 0 , 0 , 0 , 0 , 0 
BC Design=,, 0 ,, 0 ,,,,,,
BC Use User HTab Curves=0
BC User HTab FreeFlow(D)= 0 

Type RM Length L Ch R = 1 ,1263.4  ,200,200,200
BEGIN DESCRIPTION:
This is a REPEATED section.

END DESCRIPTION:
Node Last Edited Time=Mar/11/2003 15:40:50
#Sta/Elev= 12 
       0     370     300     360     500     360     620     361     621     352
     624     349     636     349     640   345.6     655   345.6     670     348
     680     361    1200     370
#Mann= 3 , 0 , 0 
       0     .08       0     620     .06       0     680     .08       0
#XS Ineff= 2 , 0 
             620     361     680             361
Permanent Ineff=
       F       F
Bank Sta=620,680
XS Rating Curve= 0 ,0
Sediment Elevation=0
Exp/Cntr=0.5,0.3

Type RM Length L Ch R = 1 ,1261.4  ,735,735,735
Node Last Edited Time=Mar/11/2003 15:40:50
#Sta/Elev= 12 
       0     370     300     360     500     360     620     361     621     352
     624     349     636     349     640   345.6     655   345.6     670     348
     680     361    1200     370
#Mann= 3 , 0 , 0 
       0     .08       0     620     .06       0     680     .08       0
#XS Ineff= 2 , 0 
             620     361     680             361
Permanent Ineff=
       F       F
Bank Sta=620,680
XS Rating Curve= 0 ,0
Sediment Elevation=0
Exp/Cntr=0.5,0.3

Type RM Length L Ch R = 1 ,1254    ,1440,1440,1440
Node Last Edited Time=May/20/2003 13:51:15
#Sta/Elev= 28 
    8600     400    9500     360   10000   354.7   10035   354.2   10063   354.5
   10066   353.5   10070   354.2   10107   355.8   10111   355.8   10115     353
   10121   351.2   10126     344   10131   342.3   10140   341.5   10147   341.5
   10153     349   10156   350.2   10160   355.2   10167   354.5   10203   353.6
   10260   353.3   10560     360   10860     370   11360     380   11460     370
   11660     370   11760     380   11860     390
#Mann= 3 , 0 , 0 
    8600     .08       0   10111     .06       0   10160     .08       0
#XS Ineff= 2 , 0 
           10111   355.8   10160           355.2
Permanent Ineff=
       F       F
Bank Sta=10111,10160
XS Rating Curve= 0 ,0
Sediment Elevation=0
Exp/Cntr=0.3,0.1

Type RM Length L Ch R = 1 ,1239.6  ,2602,2602,2602
Node Last Edited Time=Mar/11/2003 15:40:50
#Sta/Elev= 21 
    8600     400    9100     350    9850     350   10000     351   10040     351
   10060   351.2   10084   351.1   10108   351.6   10124   337.7   10140   337.7
   10152     339   10157     343   10160     352   10180     351   10187   350.1
   10260   350.8   10360     350   10960     360   11160     370   11760     380
   11860     390
#Mann= 3 , 0 , 0 
    8600     .08       0   10108     .04       0   10160     .08       0
#XS Ineff= 2 , 0 
           10108   351.6   10160             352
Permanent Ineff=
       F       F
Bank Sta=10108,10160
XS Rating Curve= 0 ,0
Sediment Elevation=0
Exp/Cntr=0.3,0.1

Type RM Length L Ch R = 1 ,1213.6  ,50,50,50
BEGIN DESCRIPTION:
This is a REPEATED section.

END DESCRIPTION:
Node Last Edited Time=Mar/11/2003 15:40:50
#Sta/Elev= 8 
       0     360     150     350    1576   351.4    1583   331.4    1617   331.4
    1624   351.4    3150     350    3250     360
#Mann= 3 , 0 , 0 
       0     .08       0    1576     .04       0    1624     .08       0
#XS Ineff= 2 , 0 
            1576   351.4    1624           351.4
Permanent Ineff=
       F       F
Bank Sta=1576,1624
XS Rating Curve= 0 ,0
Sediment Elevation=0
Exp/Cntr=0.5,0.3

Type RM Length L Ch R = 1 ,1213.1  ,15,15,15
BEGIN DESCRIPTION:
This is a REPEATED section.

END DESCRIPTION:
Node Last Edited Time=Mar/11/2003 15:40:50
#Sta/Elev= 8 
       0     360     150     350    1576   351.4    1583   331.4    1617   331.4
    1624   351.4    3150     350    3250     360
#Mann= 3 , 0 , 0 
       0     .08       0    1576     .04       0    1624     .08       0
#XS Ineff= 2 , 0 
            1576   351.4    1624           351.4
Permanent Ineff=
       F       F
Bank Sta=1576,1624
XS Rating Curve= 0 ,0
Sediment Elevation=0
Exp/Cntr=0.5,0.3

Type RM Length L Ch R = 3 ,1213    ,,,
BEGIN DESCRIPTION:
Bridge #11

END DESCRIPTION:
Node Last Edited Time=May/20/2003 11:50:13
Bridge Culvert--1,0,-1,-1, 0 
Deck Dist Width WeirC Skew NumUp NumDn MinLoCord MaxHiCord MaxSubmerge Is_Ogee
3,11,2.6,0, 6, 6, 351.4, , 0.95, 0, 0,0,,
       0    1576    1576    1624    1624    3250
   351.4   351.4   351.4   351.4   351.4   351.4
   331.4   331.4   349.4   349.4   331.4   331.4
       0    1576    1576    1624    1624    3250
   351.4   351.4   351.4   351.4   351.4   351.4
   331.4   331.4   349.4   349.4   331.4   331.4
Pier Skew, UpSta & Num, DnSta & Num=  ,1600, 2 ,1600, 2 , 0 , 0 , 0 ,,
    3.33    3.33
   331.4   349.4
    3.33    3.33
   331.4   349.4
BR Coef= 0 , 0 ,-1 ,1.05, 0 ,,,0.8006408,0,,2,349.4
WSPro=,,,, 1 ,,,, 0 ,,,, 0 ,,,,-1 ,-1 ,-1 , 0 , 0 , 0 , 0 , 0 
BC Design=,, 0 ,, 0 ,,,,,,
BC Use User HTab Curves=0
BC User HTab FreeFlow(D)= 0 

Type RM Length L Ch R = 1 ,1212.9  ,463,463,463
Node Last Edited Time=Mar/11/2003 15:40:50
#Sta/Elev= 8 
       0     360     150     350    1576   351.4    1583   331.4    1617   331.4
    1624   351.4    3150     350    3250     360
#Mann= 3 , 0 , 0 
       0     .08       0    1576     .04       0    1624     .08       0
#XS Ineff= 2 , 0 
            1576   351.4    1624           351.4
Permanent Ineff=
       F       F
Bank Sta=1576,1624
XS Rating Curve= 0 ,0
Sediment Elevation=0
Exp/Cntr=0.5,0.3

Type RM Length L Ch R = 1 ,1208.3  ,2630,2630,2630
Node Last Edited Time=Mar/11/2003 15:40:50
#Sta/Elev= 19 
    8400     390    8800     350   10000   342.8   10095     343   10100     344
   10130   343.6   10147   330.4   10170   330.6   10185   330.4   10188     333
   10192   340.6   10197   341.7   10200   344.2   10210   344.5   10213   343.6
   10250   343.1   10300     343   11800     350   12200     380
#Mann= 3 , 0 , 0 
    8400     .08       0   10130     .04       0   10200     .08       0
#Block Obstruct= 2 , 0 
           10100     344   10210           344.5
Bank Sta=10130,10200
XS Rating Curve= 0 ,0
Sediment Elevation=0
Exp/Cntr=0.3,0.1

Type RM Length L Ch R = 1 ,1182    ,3100,3100,3100
Node Last Edited Time=May/21/2003 15:02:10
#Sta/Elev= 24 
    7900     390    8400     340   10000   338.2   10007   338.4   10012   339.3
   10022   339.2   10026   336.1   10051   335.7   10070     336   10089   335.2
   10101     334   10113   325.5   10136     325   10144   324.5   10155     334
   10158   334.5   10160   337.7   10180   337.5   10187   337.9   10260   337.1
   11260     340   11760     350   12060     360   12360     390
#Mann= 3 , 0 , 0 
    7900     .08       0   10022     .04       0   10160     .08       0
#Block Obstruct= 2 , 0 
           10012   339.3   10187           337.9
Bank Sta=10022,10160
XS Rating Curve= 0 ,0
Sediment Elevation=0
Exp/Cntr=0.3,0.1

Type RM Length L Ch R = 1 ,1151    ,2525,2525,2525
Node Last Edited Time=Mar/11/2003 15:40:50
#Sta/Elev= 31 
    7300     380    7700     370    7900     360    8200     350    8500     340
   10000   332.4   10035   331.6   10060   331.5   10105   331.9   10108   332.2
   10114   325.5   10133   318.5   10141   317.5   10152   321.5   10163     321
   10183     325   10205   325.3   10218   327.4   10240   328.2   10253   330.4
   10260   332.8   10280   332.5   10302   332.9   10310   331.8   10360     332
   11360     340   11860     350   12460     360   12560     370   12660     380
   12860     390
#Mann= 3 , 0 , 0 
    7300     .08       0   10108     .04       0   10260     .08       0
#XS Ineff= 2 , 0 
           10108   332.2   10260           332.8
Permanent Ineff=
       F       F
Bank Sta=10108,10260
XS Rating Curve= 0 ,0
Sediment Elevation=0
Exp/Cntr=0.3,0.1

Type RM Length L Ch R = 1 ,1125.8  ,167,167,167
Node Last Edited Time=Mar/11/2003 15:40:50
#Sta/Elev= 26 
    8800     380    8900     370    9000     360    9250     350    9300     340
    9600     330   10000     327   10060   326.8   10093     327   10098   327.4
   10104   327.6   10116   316.5   10120     312   10151   312.1   10161   319.5
   10165   319.1   10184   324.5   10193   325.1   10200   327.7   10300   327.2
   10500     330   11800     340   12000     350   13000     360   13500     370
   13800     380
#Mann= 3 , 0 , 0 
    8800     .08       0   10104     .04       0   10200     .08       0
#XS Ineff= 2 , 0 
           10104   327.6   10200           327.7
Permanent Ineff=
       F       F
Bank Sta=10104,10200
XS Rating Curve= 0 ,0
Sediment Elevation=0
Exp/Cntr=0.3,0.1

Type RM Length L Ch R = 1 ,1124.1  ,50,50,50
BEGIN DESCRIPTION:
This is a REPEATED section.

END DESCRIPTION:
Node Last Edited Time=Mar/11/2003 15:40:50
#Sta/Elev= 6 
       0     330   355.5   329.7   380.5   304.7   419.5   304.7   444.5   329.7
     800     330
#Mann= 3 , 0 , 0 
       0     .08       0   355.5     .04       0   444.5     .08       0
#XS Ineff= 2 , 0 
           355.5   329.7   444.5           329.7
Permanent Ineff=
       F       F
Bank Sta=355.5,444.5
XS Rating Curve= 0 ,0
Sediment Elevation=0
Exp/Cntr=0.5,0.3

Type RM Length L Ch R = 1 ,1123.6  ,15,15,15
BEGIN DESCRIPTION:
This is a REPEATED section.

END DESCRIPTION:
Node Last Edited Time=Mar/11/2003 15:40:50
#Sta/Elev= 6 
       0     330   355.5   329.7   380.5   304.7   419.5   304.7   444.5   329.7
     800     330
#Mann= 3 , 0 , 0 
       0     .08       0   355.5     .04       0   444.5     .08       0
#XS Ineff= 2 , 0 
           355.5   329.7   444.5           329.7
Permanent Ineff=
       F       F
Bank Sta=355.5,444.5
XS Rating Curve= 0 ,0
Sediment Elevation=0
Exp/Cntr=0.5,0.3

Type RM Length L Ch R = 3 ,1123.5  ,,,
BEGIN DESCRIPTION:
Bridge #10

END DESCRIPTION:
Node Last Edited Time=May/20/2003 11:50:13
Bridge Culvert--1,0,-1,-1, 0 
Deck Dist Width WeirC Skew NumUp NumDn MinLoCord MaxHiCord MaxSubmerge Is_Ogee
3,11,2.6,0, 6, 6, 329.7, , 0.95, 0, 0,0,,
       0   355.5   355.5   444.5   444.5     800
   329.7   329.7   329.7   329.7   329.7   329.7
   304.7   304.7   327.7   327.7   304.7   304.7
       0   355.5   355.5   444.5   444.5     800
   329.7   329.7   329.7   329.7   329.7   329.7
   304.7   304.7   327.7   327.7   304.7   304.7
Pier Skew, UpSta & Num, DnSta & Num=  ,400, 2 ,400, 2 , 0 , 0 , 0 ,,
    3.33    3.33
   304.7   327.7
    3.33    3.33
   304.7   327.7
BR Coef= 0 , 0 ,-1 ,1.05, 0 ,,,0.8006408,0,,2,327.7
WSPro=,,,, 1 ,,,, 0 ,,,, 0 ,,,,-1 ,-1 ,-1 , 0 , 0 , 0 , 0 , 0 
BC Design=,, 0 ,, 0 ,,,,,,
BC Use User HTab Curves=0
BC User HTab FreeFlow(D)= 0 

Type RM Length L Ch R = 1 ,1123.4  ,200,200,200
BEGIN DESCRIPTION:
This is a REPEATED section.

END DESCRIPTION:
Node Last Edited Time=Mar/11/2003 15:40:50
#Sta/Elev= 6 
       0     330   355.5   329.7   380.5   304.7   419.5   304.7   444.5   329.7
     800     330
#Mann= 3 , 0 , 0 
       0     .08       0   355.5     .04       0   444.5     .08       0
#XS Ineff= 2 , 0 
           355.5   329.7   444.5           329.7
Permanent Ineff=
       F       F
Bank Sta=355.5,444.5
XS Rating Curve= 0 ,0
Sediment Elevation=0
Exp/Cntr=0.5,0.3

Type RM Length L Ch R = 1 ,1121.4  ,3143,3143,3143
Node Last Edited Time=Mar/11/2003 15:40:50
#Sta/Elev= 6 
       0     330   355.5   329.7   380.5   304.7   419.5   304.7   444.5   329.7
     800     330
#Mann= 3 , 0 , 0 
       0     .08       0   355.5     .04       0   444.5     .08       0
#XS Ineff= 2 , 0 
           355.5   329.7   444.5           329.7
Permanent Ineff=
       F       F
Bank Sta=355.5,444.5
XS Rating Curve= 0 ,0
Sediment Elevation=0
Exp/Cntr=0.5,0.3

Type RM Length L Ch R = 1 ,1090    ,3600,3600,3600
Node Last Edited Time=Mar/11/2003 15:40:50
#Sta/Elev= 26 
    8300     370    8400     360    8650     350    8750     340    8800     330
   10000  317.9210025.12   318.710070.11  317.6310086.86  319.4810099.52  322.69
10110.62  312.9510129.71  305.7510155.22  305.4510171.58   307.510172.75  311.49
10185.02  314.4210194.37  315.5810199.24  319.9710274.81  318.9910291.95  320.06
10298.38  317.82   11198     330   11348     340   11698     350   11898     360
   11998     370
#Mann= 3 , 0 , 0 
    8300     .08       010099.52     .04       010199.24     .08       0
#Block Obstruct= 2 , 0 
        10099.52  322.6910199.24          319.97
Bank Sta=10099.52,10199.24
XS Rating Curve= 0 ,0
Sediment Elevation=0
Exp/Cntr=0.3,0.1

Type RM Length L Ch R = 1 ,1054    ,1726,1726,1726
Node Last Edited Time=May/21/2003 15:01:28
#Sta/Elev= 27 
    8100     360    8300     350    8500     340    8600     330    8800     320
   10000  313.26 10039.2   315.110046.22  317.6310052.26  317.9210058.31  316.94
10066.88  311.6810079.17  310.5110096.12  297.5510128.29  297.3410135.32  302.11
10140.98  307.5710149.37  313.3110154.44  314.0910158.15  315.6410164.19  315.45
10175.11  312.4310248.82   312.6   11349     320   11549     330   11749     340
   11849     350   12049     360
#Mann= 3 , 0 , 0 
    8100     .08       010058.31     .04       010158.15     .08       0
#Block Obstruct= 2 , 0 
        10052.26  317.9210158.15          315.64
Bank Sta=10058.31,10158.15
XS Rating Curve= 0 ,0
Sediment Elevation=0
Exp/Cntr=0.3,0.1

Type RM Length L Ch R = 1 ,1036.7  ,50,50,50
BEGIN DESCRIPTION:
This is a REPEATED section.

END DESCRIPTION:
Node Last Edited Time=Mar/11/2003 15:40:50
#Sta/Elev= 7 
       0     320      50     315    1205   314.7    1206   294.7    1289   294.7
    1290   314.7    3100     320
#Mann= 3 , 0 , 0 
       0     .08       0    1205     .04       0    1290     .08       0
#XS Ineff= 2 , 0 
            1205   314.7    1290           314.7
Permanent Ineff=
       F       F
Bank Sta=1205,1290
XS Rating Curve= 0 ,0
Sediment Elevation=0
Exp/Cntr=0.5,0.3

Type RM Length L Ch R = 1 ,1036.2  ,28,28,28
BEGIN DESCRIPTION:
This is a REPEATED section.

END DESCRIPTION:
Node Last Edited Time=Mar/11/2003 15:40:50
#Sta/Elev= 7 
       0     320      50     315    1205   314.7    1206   294.7    1289   294.7
    1290   314.7    3100     320
#Mann= 3 , 0 , 0 
       0     .08       0    1205     .04       0    1290     .08       0
#XS Ineff= 2 , 0 
            1205   314.7    1290           314.7
Permanent Ineff=
       F       F
Bank Sta=1205,1290
XS Rating Curve= 0 ,0
Sediment Elevation=0
Exp/Cntr=0.5,0.3

Type RM Length L Ch R = 3 ,1036.1  ,,,
BEGIN DESCRIPTION:
Bridge #9

END DESCRIPTION:
Node Last Edited Time=May/20/2003 11:50:13
Bridge Culvert--1,0,-1,-1, 0 
Deck Dist Width WeirC Skew NumUp NumDn MinLoCord MaxHiCord MaxSubmerge Is_Ogee
3,24,2.6,0, 6, 6, 314.7, , 0.95, 0, 0,0,,
       0    1205    1205    1290    1290    3100
   314.7   314.7   314.7   314.7   314.7   314.7
   294.7   294.7   312.7   312.7   294.7   294.7
       0    1205    1205    1290    1290    3100
   314.7   314.7   314.7   314.7   314.7   314.7
   294.7   294.7   312.7   312.7   294.7   294.7
Pier Skew, UpSta & Num, DnSta & Num=  ,1247.5, 2 ,1247.5, 2 , 0 , 0 , 0 ,,
    4.67    4.67
   294.7   312.7
    4.67    4.67
   294.7   312.7
BR Coef= 0 , 0 ,-1 ,1.05, 0 ,,,0.8006408,0,,2,312.7
WSPro=,,,, 1 ,,,, 0 ,,,, 0 ,,,,-1 ,-1 ,-1 , 0 , 0 , 0 , 0 , 0 
BC Design=,, 0 ,, 0 ,,,,,,
BC Use User HTab Curves=0
BC User HTab FreeFlow(D)= 0 

Type RM Length L Ch R = 1 ,1036    ,200,200,200
BEGIN DESCRIPTION:
This is a REPEATED section.

END DESCRIPTION:
Node Last Edited Time=Mar/11/2003 15:40:50
#Sta/Elev= 7 
       0     320      50     315    1205   314.7    1206   294.7    1289   294.7
    1290   314.7    3100     320
#Mann= 3 , 0 , 0 
       0     .08       0    1205     .04       0    1290     .08       0
#XS Ineff= 2 , 0 
            1205   314.7    1290           314.7
Permanent Ineff=
       F       F
Bank Sta=1205,1290
XS Rating Curve= 0 ,0
Sediment Elevation=0
Exp/Cntr=0.5,0.3

Type RM Length L Ch R = 1 ,1034    ,996,996,996
Node Last Edited Time=Mar/11/2003 15:40:50
#Sta/Elev= 7 
       0     320      50     315    1205   314.7    1206   294.7    1289   294.7
    1290   314.7    3100     320
#Mann= 3 , 0 , 0 
       0     .08       0    1205     .04       0    1290     .08       0
#XS Ineff= 2 , 0 
            1205   314.7    1290           314.7
Permanent Ineff=
       F       F
Bank Sta=1205,1290
XS Rating Curve= 0 ,0
Sediment Elevation=0
Exp/Cntr=0.5,0.3

Type RM Length L Ch R = 1 ,1024    ,3075,3075,3075
Node Last Edited Time=Mar/11/2003 15:40:50
#Sta/Elev= 26 
    8200     350    8600     340    8800     330    9300     320    9500     310
   10000  307.5610069.23  307.36 10089.9  308.4210099.06  310.2610105.69   309.1
10110.37  305.0510146.45  296.85 10152.1  294.44 10179.6  293.5710192.27  292.03
10199.88  293.1810210.21  297.9110220.16  309.3910239.66  307.56 10269.1  306.59
10318.83  307.07   11619     310   12519     320   12919     330   13019     340
   13219     350
#Mann= 3 , 0 , 0 
    8200     .08       010099.06     .04       010220.16     .08       0
#Block Obstruct= 2 , 0 
        10099.06  310.2610220.16          309.39
Bank Sta=10099.06,10220.16
XS Rating Curve= 0 ,0
Sediment Elevation=0
Exp/Cntr=0.3,0.1

Type RM Length L Ch R = 1 ,993.3   ,1149,1149,1149
Node Last Edited Time=Mar/11/2003 15:40:50
#Sta/Elev= 22 
    8700     350    9100     310   10000   301.810029.44  302.3810084.58  304.39
 10099.6  304.0510112.21  293.4310124.14  290.3710135.34  283.9210199.98  290.51
10209.67  295.1910218.44   295.910229.65  303.4910238.02  304.4810245.05  303.44
10255.59  302.7910329.29  302.35   12829     310   13529     320   13729     330
   14029     340   14329     350
#Mann= 3 , 0 , 0 
    8700     .08       0 10099.6     .03       010229.65     .08       0
#Block Obstruct= 2 , 0 
        10084.58  304.3910238.02          304.48
Bank Sta=10099.6,10229.65
XS Rating Curve= 0 ,0
Sediment Elevation=0
Exp/Cntr=0.3,0.1

Type RM Length L Ch R = 1 ,981.8   ,50,50,50
BEGIN DESCRIPTION:
This is a REPEATED section.

END DESCRIPTION:
Node Last Edited Time=Mar/11/2003 15:40:50
#Sta/Elev= 9 
       0     310     663     306     664     295     683   284.8     736   284.8
     738     306    1700     300    2200     300    2550     310
#Mann= 3 , 0 , 0 
       0     .08       0     663     .03       0     738     .08       0
#XS Ineff= 2 , 0 
             663     306     738             306
Permanent Ineff=
       F       F
Bank Sta=663,738
XS Rating Curve= 0 ,0
Sediment Elevation=0
Exp/Cntr=0.5,0.3

Type RM Length L Ch R = 1 ,981.3   ,12,12,12
BEGIN DESCRIPTION:
This is a REPEATED section.

END DESCRIPTION:
Node Last Edited Time=Mar/11/2003 15:40:50
#Sta/Elev= 9 
       0     310     663     306     664     295     683   284.8     736   284.8
     738     306    1700     300    2200     300    2550     310
#Mann= 3 , 0 , 0 
       0     .08       0     663     .03       0     738     .08       0
#XS Ineff= 2 , 0 
             663     306     738             306
Permanent Ineff=
       F       F
Bank Sta=663,738
XS Rating Curve= 0 ,0
Sediment Elevation=0
Exp/Cntr=0.5,0.3

Type RM Length L Ch R = 3 ,981.2   ,,,
BEGIN DESCRIPTION:
Bridge #8

END DESCRIPTION:
Node Last Edited Time=May/20/2003 11:50:13
Bridge Culvert--1,0,-1,-1, 0 
Deck Dist Width WeirC Skew NumUp NumDn MinLoCord MaxHiCord MaxSubmerge Is_Ogee
3,8,2.6,0, 6, 6, 306, , 0.95, 0, 0,0,,
       0     663     663     738     738    2550
     306     306     306     306     306     306
   284.8   284.8     303     303   284.8   284.8
       0     663     663     738     738    2550
     306     306     306     306     306     306
   284.8   284.8     303     303   284.8   284.8
BR Coef=-1 , 0 , 0 ,0, 0 ,,,0.8006408,0,,1,303
WSPro=,,,, 1 ,,,, 0 ,,,, 0 ,,,,-1 ,-1 ,-1 , 0 , 0 , 0 , 0 , 0 
BC Design=,, 0 ,, 0 ,,,,,,
BC Use User HTab Curves=0
BC User HTab FreeFlow(D)= 0 

Type RM Length L Ch R = 1 ,981.1   ,200,200,200
BEGIN DESCRIPTION:
This is a REPEATED section.

END DESCRIPTION:
Node Last Edited Time=Mar/11/2003 15:40:50
#Sta/Elev= 9 
       0     310     663     306     664     295     683   284.8     736   284.8
     738     306    1700     300    2200     300    2550     310
#Mann= 3 , 0 , 0 
       0     .08       0     663     .03       0     738     .08       0
#XS Ineff= 2 , 0 
             663     306     738             306
Permanent Ineff=
       F       F
Bank Sta=663,738
XS Rating Curve= 0 ,0
Sediment Elevation=0
Exp/Cntr=0.5,0.3

Type RM Length L Ch R = 1 ,979.1   ,1814,1814,1814
Node Last Edited Time=Mar/11/2003 15:40:50
#Sta/Elev= 9 
       0     310     663     306     664     295     683   284.8     736   284.8
     738     306    1700     300    2200     300    2550     310
#Mann= 3 , 0 , 0 
       0     .08       0     663     .03       0     738     .08       0
#XS Ineff= 2 , 0 
             663     306     738             306
Permanent Ineff=
       F       F
Bank Sta=663,738
XS Rating Curve= 0 ,0
Sediment Elevation=0
Exp/Cntr=0.5,0.3

Type RM Length L Ch R = 1 ,961     ,2800,2800,2800
Node Last Edited Time=Mar/11/2003 15:40:50
#Sta/Elev= 27 
    8500     350    8800     320    9200     310    9800     300   10000  297.87
10049.77  298.1510064.01  298.5610070.85  297.2110079.04  298.4910099.73  298.04
10109.35  290.9710119.72   287.410131.04  286.4410138.88  282.3810154.88  283.09
10160.92  284.3610167.37   283.4 10186.5  282.4610198.01  283.2610200.73   285.3
10223.92  291.1710236.74  299.0510246.71  297.8110276.76  298.1510335.71  298.25
   12036     300   12836     350
#Mann= 3 , 0 , 0 
    8500     .08       010099.73     .03       010236.74     .08       0
#Block Obstruct= 2 , 0 
        10079.04  298.4910236.74          299.05
Bank Sta=10099.73,10236.74
XS Rating Curve= 0 ,0
Sediment Elevation=0
Exp/Cntr=0.3,0.1

Type RM Length L Ch R = 1 ,933     ,3210,3210,3210
Node Last Edited Time=May/21/2003 14:59:23
#Sta/Elev= 35 
    7600     350    8000     320    8200     310    8500     300   10000  294.51
10043.11  294.8810058.48  299.7310070.18  300.3310088.17  295.7410099.87  295.48
10103.81  291.24 10108.1  290.9610116.56  282.11 10123.6  280.3910126.93  278.08
10143.89  279.5610158.69  282.4910164.36  280.7610174.68  283.2910190.48  284.28
 10204.9  285.7610211.31  288.4710221.05  290.7110226.68  294.0910243.06  295.18
10260.57  300.4210266.81  301.0110285.98  294.2110325.97  293.61   11826     300
   11926     310   12126     320   12326     330   12826     340   13226     350
#Mann= 3 , 0 , 0 
    7600     .08       010070.18     .03       010260.57     .08       0
#Block Obstruct= 2 , 0 
        10070.18  300.3310266.81          301.02